*Heading
** simulation of free-swelling of 3D cylinder
** the dimension of the cylinder is 10 mm (height) x 5 mm (diameter) 
** an octant of the 3D cylinder is modeled using U2 (HEX8) element
** It starts from the dry state to a swollen equilibrium state
*Node
1, 0.00191176473,           0.,           0.
2,           0.,           0.,           0.
3,           0.,           0., -0.00191176473
4, 0.00154579908,           0., -0.00155728741
5, 0.00191176473, 0.00242424244,           0.
6,           0., 0.00242424244,           0.
7,           0., 0.00242424244, -0.00191176473
8, 0.00152067305, 0.00242424244, -0.00152028794
9,           0.,           0., -0.00249999994
10, 0.00176776689,           0., -0.00176776689
11,           0., 0.00242424244, -0.00249999994
12, 0.00176778762, 0.00242424244, -0.00176774629
13, 0.00249999994,           0.,           0.
14, 0.00249999994, 0.00242424244,           0.
15,           0., 0.00499999989,           0.
16,           0., 0.00499999989, -0.00191176473
17, 0.00191176473, 0.00499999989,           0.
18, 0.00155348529, 0.00499999989, -0.00155066559
19,           0., 0.00499999989, -0.00249999994
20, 0.00176776689, 0.00499999989, -0.00176776689
** ... 10316 like lines cut
*User Element,Type=U2,Nodes=8,Coordinates=3,Properties=12,Iproperties=3,Variables=8,Unsymm
1,2,3,11
*Element, type=U2
1,   133,  1130,  3641,   770,     1,    22,   482,    69
2,  1130,  1131,  3642,  3641,    22,    23,   483,   482
3,  1131,  1132,  3643,  3642,    23,    24,   484,   483
4,  1132,  1133,  3644,  3643,    24,    25,   485,   484
5,  1133,  1134,  3645,  3644,    25,    26,   486,   485
6,  1134,  1135,  3646,  3645,    26,    27,   487,   486
7,  1135,  1136,  3647,  3646,    27,    28,   488,   487
8,  1136,  1137,  3648,  3647,    28,    29,   489,   488
9,  1137,  1138,  3649,  3648,    29,    30,   490,   489
10,  1138,  1139,  3650,  3649,    30,    31,   491,   490
11,  1139,  1140,  3651,  3650,    31,    32,   492,   491
12,  1140,  1141,  3652,  3651,    32,    33,   493,   492
13,  1141,   163,   950,  3652,    33,     2,    34,   493
14,   770,  3641,  3653,   771,    69,   482,   494,    68
15,  3641,  3642,  3654,  3653,   482,   483,   495,   494
16,  3642,  3643,  3655,  3654,   483,   484,   496,   495
17,  3643,  3644,  3656,  3655,   484,   485,   497,   496
18,  3644,  3645,  3657,  3656,   485,   486,   498,   497
19,  3645,  3646,  3658,  3657,   486,   487,   499,   498
20,  3646,  3647,  3659,  3658,   487,   488,   500,   499
** ... 8989 like lines cut
*System
*Nset, nset=All, generate
1,  10336,      1
*Elset, elset=All, generate
1,  9009,     1
*Nset, nset=Bottom
1,    2,    3,    4,    9,   10,   13,   22,   23,   24,   25,   26,   27,   28,   29,   30
31,   32,   33,   34,   35,   36,   37,   38,   39,   40,   41,   42,   43,   44,   45,   46
47,   48,   49,   50,   51,   52,   53,   54,   55,   56,   57,   58,   59,   60,   61,   62
63,   64,   65,   66,   67,   68,   69,  178,  179,  180,  181,  182,  183,  184,  185,  186
187,  188,  189,  190,  191,  192,  193,  194,  195,  244,  245,  246,  247,  248,  249,  250
251,  252,  253,  254,  255,  256,  257,  258,  482,  483,  484,  485,  486,  487,  488,  489
490,  491,  492,  493,  494,  495,  496,  497,  498,  499,  500,  501,  502,  503,  504,  505
506,  507,  508,  509,  510,  511,  512,  513,  514,  515,  516,  517,  518,  519,  520,  521
522,  523,  524,  525,  526,  527,  528,  529,  530,  531,  532,  533,  534,  535,  536,  537
538,  539,  540,  541,  542,  543,  544,  545,  546,  547,  548,  549,  550,  551,  552,  553
554,  555,  556,  557,  558,  559,  560,  561,  562,  563,  564,  565,  566,  567,  568,  569
570,  571,  572,  573,  574,  575,  576,  577,  578,  579,  580,  581,  582,  583,  584,  585
586,  587,  588,  589,  590,  591,  592,  593,  594,  595,  596,  597,  598,  599,  600,  601
602,  603,  604,  605,  606,  607,  608,  609,  610,  611,  612,  613,  614,  615,  616,  617
618,  619,  620,  621,  622,  623,  624,  625, 1490, 1491, 1492, 1493, 1494, 1495, 1496, 1497
1498, 1499, 1500, 1501, 1502, 1503, 1504, 1505, 1506, 1507, 1508, 1509, 1510, 1511, 1512, 1513
1514, 1515, 1516, 1517, 1518, 1519, 1520, 1521, 1522, 1523, 1524, 1525, 1832, 1833, 1834, 1835
1836, 1837, 1838, 1839, 1840, 1841, 1842, 1843, 1844, 1845, 1846, 1847, 1848, 1849, 1850, 1851
1852, 1853, 1854, 1855, 1856, 1857, 1858, 1859, 1860, 1861, 1862, 1863, 1864, 1865, 1866, 1867
*Elset, elset=Bottom
1,    2,    3,    4,    5,    6,    7,    8,    9,   10,   11,   12,   13,   14,   15,   16
17,   18,   19,   20,   21,   22,   23,   24,   25,   26,   27,   28,   29,   30,   31,   32
33,   34,   35,   36,   37,   38,   39,   40,   41,   42,   43,   44,   45,   46,   47,   48
49,   50,   51,   52,   53,   54,   55,   56,   57,   58,   59,   60,   61,   62,   63,   64
65,   66,   67,   68,   69,   70,   71,   72,   73,   74,   75,   76,   77,   78,   79,   80
81,   82,   83,   84,   85,   86,   87,   88,   89,   90,   91,   92,   93,   94,   95,   96
97,   98,   99,  100,  101,  102,  103,  104,  105,  106,  107,  108,  109,  110,  111,  112
113,  114,  115,  116,  117,  118,  119,  120,  121,  122,  123,  124,  125,  126,  127,  128
129,  130,  131,  132,  133,  134,  135,  136,  137,  138,  139,  140,  141,  142,  143,  144
145,  146,  147,  148,  149,  150,  151,  152,  153,  154,  155,  156,  157,  158,  159,  160
161,  162,  163,  164,  165,  166,  167,  168,  169, 2705, 2706, 2707, 2708, 2709, 2710, 2711
2712, 2713, 2714, 2715, 2716, 2717, 2718, 2719, 2720, 2721, 2722, 2723, 2724, 2725, 2726, 2727
2728, 2729, 2730, 2731, 2732, 2733, 2734, 2735, 2736, 2737, 2738, 2739, 2740, 2741, 2742, 2743
2744, 2745, 2746, 2747, 2748, 2749, 2750, 2751, 2752, 2753, 2754, 2755, 2756, 3537, 3538, 3539
3540, 3541, 3542, 3543, 3544, 3545, 3546, 3547, 3548, 3549, 3550, 3551, 3552, 3553, 3554, 3555
3556, 3557, 3558, 3559, 3560, 3561, 3562, 3563, 3564, 3565, 3566, 3567, 3568, 3569, 3570, 3571
3572, 3573, 3574, 3575, 3576, 3577, 3578, 3579, 3580, 3581, 3582, 3583, 3584, 3585, 3586, 3587
3588,
*Nset, nset=Front
1,    2,    5,    6,   13,   14,   15,   17,   21,   22,   23,   24,   25,   26,   27,   28
29,   30,   31,   32,   33,   70,   71,   72,   73,   74,   75,   76,   77,   78,   79,   80
81,  133,  134,  135,  136,  137,  138,  139,  140,  141,  142,  143,  144,  145,  146,  147
163,  164,  165,  166,  167,  168,  169,  170,  171,  172,  173,  174,  175,  176,  177,  256
257,  258,  271,  272,  273,  274,  275,  276,  277,  278,  279,  280,  281,  282,  283,  284
285,  286,  287,  288,  289,  290,  291,  292,  293,  294,  295,  296,  297,  298,  299,  300
301,  302,  303,  304,  333,  334,  335,  336,  337,  338,  339,  340,  341,  342,  343,  344
345,  346,  347,  348,  389,  390,  391,  392,  393,  394,  395,  396,  397,  398,  399,  400
463,  464,  465,  466,  467,  468,  469,  470,  471,  472,  473,  474,  475,  476,  477,  478
479,  480,  481, 1130, 1131, 1132, 1133, 1134, 1135, 1136, 1137, 1138, 1139, 1140, 1141, 1142
1143, 1144, 1145, 1146, 1147, 1148, 1149, 1150, 1151, 1152, 1153, 1154, 1155, 1156, 1157, 1158
1159, 1160, 1161, 1162, 1163, 1164, 1165, 1166, 1167, 1168, 1169, 1170, 1171, 1172, 1173, 1174
1175, 1176, 1177, 1178, 1179, 1180, 1181, 1182, 1183, 1184, 1185, 1186, 1187, 1188, 1189, 1190
1191, 1192, 1193, 1194, 1195, 1196, 1197, 1198, 1199, 1200, 1201, 1202, 1203, 1204, 1205, 1206
1207, 1208, 1209, 1210, 1211, 1212, 1213, 1214, 1215, 1216, 1217, 1218, 1219, 1220, 1221, 1222
1223, 1224, 1225, 1226, 1227, 1228, 1229, 1230, 1231, 1232, 1233, 1234, 1235, 1236, 1237, 1238
1239, 1240, 1241, 1242, 1243, 1244, 1245, 1246, 1247, 1248, 1249, 1250, 1251, 1252, 1253, 1254
1255, 1256, 1257, 1258, 1259, 1260, 1261, 1262, 1263, 1264, 1265, 1266, 1267, 1268, 1269, 1270
1271, 1272, 1273, 1274, 1275, 1276, 1277, 1278, 1279, 1280, 1281, 1282, 1283, 1284, 1285, 1286
1287, 1288, 1289, 1290, 1291, 1292, 1293, 1294, 1295, 1296, 1297, 1298, 1299, 1300, 1301, 1302
** ... 19 like lines cut
*Elset, elset=Front
1,    2,    3,    4,    5,    6,    7,    8,    9,   10,   11,   12,   13,  170,  171,  172
173,  174,  175,  176,  177,  178,  179,  180,  181,  182,  339,  340,  341,  342,  343,  344
345,  346,  347,  348,  349,  350,  351,  508,  509,  510,  511,  512,  513,  514,  515,  516
517,  518,  519,  520,  677,  678,  679,  680,  681,  682,  683,  684,  685,  686,  687,  688
689,  846,  847,  848,  849,  850,  851,  852,  853,  854,  855,  856,  857,  858, 1015, 1016
1017, 1018, 1019, 1020, 1021, 1022, 1023, 1024, 1025, 1026, 1027, 1184, 1185, 1186, 1187, 1188
1189, 1190, 1191, 1192, 1193, 1194, 1195, 1196, 1353, 1354, 1355, 1356, 1357, 1358, 1359, 1360
1361, 1362, 1363, 1364, 1365, 1522, 1523, 1524, 1525, 1526, 1527, 1528, 1529, 1530, 1531, 1532
1533, 1534, 1691, 1692, 1693, 1694, 1695, 1696, 1697, 1698, 1699, 1700, 1701, 1702, 1703, 1860
1861, 1862, 1863, 1864, 1865, 1866, 1867, 1868, 1869, 1870, 1871, 1872, 2029, 2030, 2031, 2032
2033, 2034, 2035, 2036, 2037, 2038, 2039, 2040, 2041, 2198, 2199, 2200, 2201, 2202, 2203, 2204
2205, 2206, 2207, 2208, 2209, 2210, 2367, 2368, 2369, 2370, 2371, 2372, 2373, 2374, 2375, 2376
2377, 2378, 2379, 2536, 2537, 2538, 2539, 2540, 2541, 2542, 2543, 2544, 2545, 2546, 2547, 2548
3549, 3562, 3575, 3588, 3601, 3614, 3627, 3640, 3653, 3666, 3679, 3692, 3705, 3718, 3731, 3744
3757, 3770, 3783, 3796, 3809, 3822, 3835, 3848, 3861, 3874, 3887, 3900, 3913, 3926, 3939, 3952
3965, 3978, 3991, 4004, 4017, 4030, 4043, 4056, 4069, 4082, 4095, 4108, 4121, 4134, 4147, 4160
4173, 4186, 4199, 4212, 4225, 4238, 4251, 4264, 4277, 4290, 4303, 4316, 4329, 4342, 4355, 4368
4369, 4370, 4371, 4372, 4373, 4374, 4375, 4376, 4377, 4378, 4379, 4380, 4381, 4382, 4383, 4384
4385, 4590, 4591, 4592, 4593, 4594, 4595, 4596, 4597, 4598, 4599, 4600, 4601, 4602, 4603, 4604
4605, 4606, 4811, 4812, 4813, 4814, 4815, 4816, 4817, 4818, 4819, 4820, 4821, 4822, 4823, 4824
** ... 16 like lines cut
*Nset, nset=Left
2,    3,    6,    7,    9,   11,   15,   16,   19,   34,   35,   36,   37,   38,   39,   40
41,   42,   43,   44,   45,   82,   83,   84,   85,   86,   87,   88,   89,   90,   91,   92
93,  148,  149,  150,  151,  152,  153,  154,  155,  156,  157,  158,  159,  160,  161,  162
163,  164,  165,  166,  167,  168,  169,  170,  171,  172,  173,  174,  175,  176,  177,  178
179,  180,  196,  197,  198,  229,  230,  231,  232,  233,  234,  235,  236,  237,  238,  239
240,  241,  242,  243,  289,  290,  291,  292,  293,  294,  295,  296,  297,  298,  299,  300
301,  302,  303,  304,  305,  306,  307,  308,  309,  310,  311,  312,  313,  314,  315,  316
317,  318,  319,  320,  321,  322,  323,  324,  325,  326,  327,  328,  329,  330,  331,  332
401,  402,  403,  404,  405,  406,  407,  408,  409,  410,  411,  412,  413,  414,  415,  416
417,  418,  419,  950,  951,  952,  953,  954,  955,  956,  957,  958,  959,  960,  961,  962
963,  964,  965,  966,  967,  968,  969,  970,  971,  972,  973,  974,  975,  976,  977,  978
979,  980,  981,  982,  983,  984,  985,  986,  987,  988,  989,  990,  991,  992,  993,  994
995,  996,  997,  998,  999, 1000, 1001, 1002, 1003, 1004, 1005, 1006, 1007, 1008, 1009, 1010
1011, 1012, 1013, 1014, 1015, 1016, 1017, 1018, 1019, 1020, 1021, 1022, 1023, 1024, 1025, 1026
1027, 1028, 1029, 1030, 1031, 1032, 1033, 1034, 1035, 1036, 1037, 1038, 1039, 1040, 1041, 1042
1043, 1044, 1045, 1046, 1047, 1048, 1049, 1050, 1051, 1052, 1053, 1054, 1055, 1056, 1057, 1058
1059, 1060, 1061, 1062, 1063, 1064, 1065, 1066, 1067, 1068, 1069, 1070, 1071, 1072, 1073, 1074
1075, 1076, 1077, 1078, 1079, 1080, 1081, 1082, 1083, 1084, 1085, 1086, 1087, 1088, 1089, 1090
1091, 1092, 1093, 1094, 1095, 1096, 1097, 1098, 1099, 1100, 1101, 1102, 1103, 1104, 1105, 1106
1107, 1108, 1109, 1110, 1111, 1112, 1113, 1114, 1115, 1116, 1117, 1118, 1119, 1120, 1121, 1122
** ... 19 like lines cut
*Elset, elset=Left
13,   26,   39,   52,   65,   78,   91,  104,  117,  130,  143,  156,  169,  182,  195,  208
221,  234,  247,  260,  273,  286,  299,  312,  325,  338,  351,  364,  377,  390,  403,  416
429,  442,  455,  468,  481,  494,  507,  520,  533,  546,  559,  572,  585,  598,  611,  624
637,  650,  663,  676,  689,  702,  715,  728,  741,  754,  767,  780,  793,  806,  819,  832
845,  858,  871,  884,  897,  910,  923,  936,  949,  962,  975,  988, 1001, 1014, 1027, 1040
1053, 1066, 1079, 1092, 1105, 1118, 1131, 1144, 1157, 1170, 1183, 1196, 1209, 1222, 1235, 1248
1261, 1274, 1287, 1300, 1313, 1326, 1339, 1352, 1365, 1378, 1391, 1404, 1417, 1430, 1443, 1456
1469, 1482, 1495, 1508, 1521, 1534, 1547, 1560, 1573, 1586, 1599, 1612, 1625, 1638, 1651, 1664
1677, 1690, 1703, 1716, 1729, 1742, 1755, 1768, 1781, 1794, 1807, 1820, 1833, 1846, 1859, 1872
1885, 1898, 1911, 1924, 1937, 1950, 1963, 1976, 1989, 2002, 2015, 2028, 2041, 2054, 2067, 2080
2093, 2106, 2119, 2132, 2145, 2158, 2171, 2184, 2197, 2210, 2223, 2236, 2249, 2262, 2275, 2288
2301, 2314, 2327, 2340, 2353, 2366, 2379, 2392, 2405, 2418, 2431, 2444, 2457, 2470, 2483, 2496
2509, 2522, 2535, 2548, 2561, 2574, 2587, 2600, 2613, 2626, 2639, 2652, 2665, 2678, 2691, 2704
2705, 2706, 2707, 2708, 2757, 2758, 2759, 2760, 2809, 2810, 2811, 2812, 2861, 2862, 2863, 2864
2913, 2914, 2915, 2916, 2965, 2966, 2967, 2968, 3017, 3018, 3019, 3020, 3069, 3070, 3071, 3072
3121, 3122, 3123, 3124, 3173, 3174, 3175, 3176, 3225, 3226, 3227, 3228, 3277, 3278, 3279, 3280
3329, 3330, 3331, 3332, 3381, 3382, 3383, 3384, 3433, 3434, 3435, 3436, 3485, 3486, 3487, 3488
4369, 4370, 4371, 4372, 4373, 4374, 4375, 4376, 4377, 4378, 4379, 4380, 4381, 4382, 4383, 4384
4385, 4386, 4387, 4388, 4389, 4390, 4391, 4392, 4393, 4394, 4395, 4396, 4397, 4398, 4399, 4400
4401, 4402, 4403, 4404, 4405, 4406, 4407, 4408, 4409, 4410, 4411, 4412, 4413, 4414, 4415, 4416
** ... 16 like lines cut
*Nset, nset=Outer
9,   10,   11,   12,   13,   14,   19,   20,   21,  181,  182,  183,  184,  185,  186,  187
188,  189,  190,  191,  192,  199,  200,  201,  202,  203,  204,  205,  206,  207,  208,  209
210,  214,  215,  216,  217,  218,  219,  220,  221,  222,  223,  224,  225,  226,  227,  228
229,  230,  231,  232,  233,  234,  235,  236,  237,  238,  239,  240,  241,  242,  243,  244
245,  246,  247,  248,  249,  250,  251,  252,  253,  254,  255,  259,  260,  261,  262,  263
264,  265,  266,  267,  268,  269,  270,  274,  275,  276,  277,  278,  279,  280,  281,  282
283,  284,  285,  286,  287,  288,  404,  405,  406,  407,  408,  409,  410,  411,  412,  413
414,  415,  416,  417,  418,  419,  423,  424,  425,  426,  427,  428,  429,  430,  431,  432
433,  434,  435,  436,  437,  438,  439,  440,  441,  442,  443,  444,  445,  446,  447,  448
449,  450,  451,  452,  453,  454,  455,  456,  457,  458,  459,  460,  461,  462,  463,  464
465,  466,  467,  468,  469,  470,  471,  472,  473,  474,  475,  476,  477,  478, 1562, 1563
1564, 1565, 1566, 1567, 1568, 1569, 1570, 1571, 1572, 1573, 1574, 1575, 1576, 1577, 1578, 1579
1580, 1581, 1582, 1583, 1584, 1585, 1586, 1587, 1588, 1589, 1590, 1591, 1592, 1593, 1594, 1595
1596, 1597, 1598, 1599, 1600, 1601, 1602, 1603, 1604, 1605, 1606, 1607, 1608, 1609, 1610, 1611
1612, 1613, 1614, 1615, 1616, 1617, 1618, 1619, 1620, 1621, 1622, 1623, 1624, 1625, 1626, 1627
1628, 1629, 1630, 1631, 1632, 1633, 1634, 1635, 1636, 1637, 1638, 1639, 1640, 1641, 1642, 1643
1644, 1645, 1646, 1647, 1648, 1649, 1650, 1651, 1652, 1653, 1654, 1655, 1656, 1657, 1658, 1659
1660, 1661, 1662, 1663, 1664, 1665, 1666, 1667, 1668, 1669, 1670, 1671, 1672, 1673, 1674, 1675
1676, 1677, 1678, 1679, 1680, 1681, 1682, 1683, 1684, 1685, 1686, 1687, 1688, 1689, 1690, 1691
1692, 1693, 1694, 1695, 1696, 1697, 1698, 1699, 1700, 1701, 1702, 1703, 1704, 1705, 1706, 1707
** ... 38 like lines cut
*Elset, elset=Outer
2708, 2712, 2716, 2720, 2724, 2728, 2732, 2736, 2740, 2744, 2748, 2752, 2756, 2760, 2764, 2768
2772, 2776, 2780, 2784, 2788, 2792, 2796, 2800, 2804, 2808, 2812, 2816, 2820, 2824, 2828, 2832
2836, 2840, 2844, 2848, 2852, 2856, 2860, 2864, 2868, 2872, 2876, 2880, 2884, 2888, 2892, 2896
2900, 2904, 2908, 2912, 2916, 2920, 2924, 2928, 2932, 2936, 2940, 2944, 2948, 2952, 2956, 2960
2964, 2968, 2972, 2976, 2980, 2984, 2988, 2992, 2996, 3000, 3004, 3008, 3012, 3016, 3020, 3024
3028, 3032, 3036, 3040, 3044, 3048, 3052, 3056, 3060, 3064, 3068, 3072, 3076, 3080, 3084, 3088
3092, 3096, 3100, 3104, 3108, 3112, 3116, 3120, 3124, 3128, 3132, 3136, 3140, 3144, 3148, 3152
3156, 3160, 3164, 3168, 3172, 3176, 3180, 3184, 3188, 3192, 3196, 3200, 3204, 3208, 3212, 3216
3220, 3224, 3228, 3232, 3236, 3240, 3244, 3248, 3252, 3256, 3260, 3264, 3268, 3272, 3276, 3280
3284, 3288, 3292, 3296, 3300, 3304, 3308, 3312, 3316, 3320, 3324, 3328, 3332, 3336, 3340, 3344
3348, 3352, 3356, 3360, 3364, 3368, 3372, 3376, 3380, 3384, 3388, 3392, 3396, 3400, 3404, 3408
3412, 3416, 3420, 3424, 3428, 3432, 3436, 3440, 3444, 3448, 3452, 3456, 3460, 3464, 3468, 3472
3476, 3480, 3484, 3488, 3492, 3496, 3500, 3504, 3508, 3512, 3516, 3520, 3524, 3528, 3532, 3536
3537, 3538, 3539, 3540, 3541, 3542, 3543, 3544, 3545, 3546, 3547, 3548, 3549, 3589, 3590, 3591
3592, 3593, 3594, 3595, 3596, 3597, 3598, 3599, 3600, 3601, 3641, 3642, 3643, 3644, 3645, 3646
3647, 3648, 3649, 3650, 3651, 3652, 3653, 3693, 3694, 3695, 3696, 3697, 3698, 3699, 3700, 3701
3702, 3703, 3704, 3705, 3745, 3746, 3747, 3748, 3749, 3750, 3751, 3752, 3753, 3754, 3755, 3756
3757, 3797, 3798, 3799, 3800, 3801, 3802, 3803, 3804, 3805, 3806, 3807, 3808, 3809, 3849, 3850
3851, 3852, 3853, 3854, 3855, 3856, 3857, 3858, 3859, 3860, 3861, 3901, 3902, 3903, 3904, 3905
3906, 3907, 3908, 3909, 3910, 3911, 3912, 3913, 3953, 3954, 3955, 3956, 3957, 3958, 3959, 3960
** ... 34 like lines cut
*Nset, nset=Top
15,   16,   17,   18,   19,   20,   21,  305,  306,  307,  308,  309,  310,  311,  312,  313
314,  315,  316,  349,  350,  351,  352,  353,  354,  355,  356,  357,  358,  359,  360,  377
378,  379,  380,  381,  382,  383,  384,  385,  386,  387,  388,  389,  390,  391,  392,  393
394,  395,  396,  397,  398,  399,  400,  401,  402,  403,  420,  421,  422,  439,  440,  441
442,  443,  444,  445,  446,  447,  448,  449,  450,  451,  452,  453,  454,  455,  456,  457
458,  459,  460,  461,  462,  479,  480,  481, 2513, 2514, 2515, 2516, 2517, 2518, 2519, 2520
2521, 2522, 2523, 2524, 2525, 2526, 2527, 2528, 2529, 2530, 2531, 2532, 2533, 2534, 2535, 2536
2537, 2538, 2539, 2540, 2541, 2542, 2543, 2544, 2545, 2546, 2547, 2548, 2549, 2550, 2551, 2552
2553, 2554, 2555, 2556, 2557, 2558, 2559, 2560, 2561, 2562, 2563, 2564, 2565, 2566, 2567, 2568
2569, 2570, 2571, 2572, 2573, 2574, 2575, 2576, 2577, 2578, 2579, 2580, 2581, 2582, 2583, 2584
2585, 2586, 2587, 2588, 2589, 2590, 2591, 2592, 2593, 2594, 2595, 2596, 2597, 2598, 2599, 2600
2601, 2602, 2603, 2604, 2605, 2606, 2607, 2608, 2609, 2610, 2611, 2612, 2613, 2614, 2615, 2616
2617, 2618, 2619, 2620, 2621, 2622, 2623, 2624, 2625, 2626, 2627, 2628, 2629, 2630, 2631, 2632
2633, 2634, 2635, 2636, 2637, 2638, 2639, 2640, 2641, 2642, 2643, 2644, 2645, 2646, 2647, 2648
2649, 2650, 2651, 2652, 2653, 2654, 2655, 2656, 3329, 3330, 3331, 3332, 3333, 3334, 3335, 3336
3337, 3338, 3339, 3340, 3341, 3342, 3343, 3344, 3345, 3346, 3347, 3348, 3349, 3350, 3351, 3352
3353, 3354, 3355, 3356, 3357, 3358, 3359, 3360, 3361, 3362, 3363, 3364, 3605, 3606, 3607, 3608
3609, 3610, 3611, 3612, 3613, 3614, 3615, 3616, 3617, 3618, 3619, 3620, 3621, 3622, 3623, 3624
3625, 3626, 3627, 3628, 3629, 3630, 3631, 3632, 3633, 3634, 3635, 3636, 3637, 3638, 3639, 3640
*Elset, elset=Top
4385, 4402, 4419, 4436, 4453, 4470, 4487, 4504, 4521, 4538, 4555, 4572, 4589, 4606, 4623, 4640
4657, 4674, 4691, 4708, 4725, 4742, 4759, 4776, 4793, 4810, 4827, 4844, 4861, 4878, 4895, 4912
4929, 4946, 4963, 4980, 4997, 5014, 5031, 5048, 5065, 5082, 5099, 5116, 5133, 5150, 5167, 5184
5201, 5218, 5235, 5252, 5269, 5286, 5303, 5320, 5337, 5354, 5371, 5388, 5405, 5422, 5439, 5456
5473, 5490, 5507, 5524, 5541, 5558, 5575, 5592, 5609, 5626, 5643, 5660, 5677, 5694, 5711, 5728
5745, 5762, 5779, 5796, 5813, 5830, 5847, 5864, 5881, 5898, 5915, 5932, 5949, 5966, 5983, 6000
6017, 6034, 6051, 6068, 6085, 6102, 6119, 6136, 6153, 6170, 6187, 6204, 6221, 6238, 6255, 6272
6289, 6306, 6323, 6340, 6357, 6374, 6391, 6408, 6425, 6442, 6459, 6476, 6493, 6510, 6527, 6544
6561, 6578, 6595, 6612, 6629, 6646, 6663, 6680, 6697, 6714, 6731, 6748, 6765, 6782, 6799, 6816
6833, 6850, 6867, 6884, 6901, 6918, 6935, 6952, 6969, 6986, 7003, 7020, 7037, 7054, 7071, 7088
7105, 7122, 7139, 7156, 7173, 7190, 7207, 7224, 7241, 7242, 7243, 7244, 7245, 7310, 7311, 7312
7313, 7378, 7379, 7380, 7381, 7446, 7447, 7448, 7449, 7514, 7515, 7516, 7517, 7582, 7583, 7584
7585, 7650, 7651, 7652, 7653, 7718, 7719, 7720, 7721, 7786, 7787, 7788, 7789, 7854, 7855, 7856
7857, 7922, 7923, 7924, 7925, 7990, 7991, 7992, 7993, 8058, 8059, 8060, 8061, 8126, 8127, 8128
8129, 8130, 8131, 8132, 8133, 8134, 8135, 8136, 8137, 8138, 8347, 8348, 8349, 8350, 8351, 8352
8353, 8354, 8355, 8356, 8357, 8358, 8359, 8568, 8569, 8570, 8571, 8572, 8573, 8574, 8575, 8576
8577, 8578, 8579, 8580, 8789, 8790, 8791, 8792, 8793, 8794, 8795, 8796, 8797, 8798, 8799, 8800
8801,
*Element, type=C3D8
100001, 133, 1130, 3641, 770, 1, 22, 482, 69
100002, 1130, 1131, 3642, 3641, 22, 23, 483, 482
100003, 1131, 1132, 3643, 3642, 23, 24, 484, 483
100004, 1132, 1133, 3644, 3643, 24, 25, 485, 484
100005, 1133, 1134, 3645, 3644, 25, 26, 486, 485
100006, 1134, 1135, 3646, 3645, 26, 27, 487, 486
100007, 1135, 1136, 3647, 3646, 27, 28, 488, 487
100008, 1136, 1137, 3648, 3647, 28, 29, 489, 488
100009, 1137, 1138, 3649, 3648, 29, 30, 490, 489
100010, 1138, 1139, 3650, 3649, 30, 31, 491, 490
100011, 1139, 1140, 3651, 3650, 31, 32, 492, 491
100012, 1140, 1141, 3652, 3651, 32, 33, 493, 492
100013, 1141, 163, 950, 3652, 33, 2, 34, 493
100014, 770, 3641, 3653, 771, 69, 482, 494, 68
100015, 3641, 3642, 3654, 3653, 482, 483, 495, 494
100016, 3642, 3643, 3655, 3654, 483, 484, 496, 495
100017, 3643, 3644, 3656, 3655, 484, 485, 497, 496
100018, 3644, 3645, 3657, 3656, 485, 486, 498, 497
100019, 3645, 3646, 3658, 3657, 486, 487, 499, 498
100020, 3646, 3647, 3659, 3658, 487, 488, 500, 499
** ... 8989 like lines cut
*Elset, elset=ElDummy, generate
100001,109009,1
** EXTRA ELEMENT
*Node
999996, 0.0, 0.0
999997, .00001, 0.0
999998, .00001, .00001
999999, 0.0, .00001
*Element, Type=CPE4T
999999,999996,999997,999998,999999
*Nset, nset=extraElement
999996,999997,999998,999999
*Elset,elset=extraElement
999999
************************************************************************
** PARAMETERS (SI UNIT SYSTEM)
************************************************************************
*Parameter
** geometric parameters
nDim    = 3
nStress = 6
** element properties and material ID
nInt        = 8
matID       = 1
nPostVars   = 2*nStress + 1
** physical constants and material properties
Rgas    = 8.3145
theta   = 25.0 + 273.0
phi0    = 0.999
rho     = 1100.0
Gshear  = 100.0e3
kappa   = 50.0*Gshear
lam_L   = 0.
Vp      = 8.928e-3
mu0     = 0.0
Vw      = 1.8e-5
chi     = 0.485
Dw      = 1.7e-6
RT      = Rgas*theta
** initial condition
initMU  = mu0 + RT*(phi0+log(1-phi0)+chi*phi0**2) - kappa*Vw*log(phi0) + 0.5*kappa*Vw*(log(phi0))**2
** physical constants and material properties
tRamp   = 3600.0*3.0
tEnd    = 3600.0*24.0
dtInit  = 10.0
dtMax   = 500.0
dtMin   = 1.0e-6
*************************************************************************** 
** MATERIAL DEFINITION 
***************************************************************************
** Material properties for the Swellable Gel Elements
*uel property,elset=all
** Rgas theta phi0 rho Gshear kappa lam_L Vp 
<Rgas>, <theta>, <phi0>, <rho>, <Gshear>, <kappa>, <lam_L>, <Vp>, 
** mu0 Vw chi Dw nInt matID nPostVars
<mu0>, <Vw>, <chi>, <Dw>, <nInt>, <matID>, <nPostVars>
***************************************************************************
*Solid section, elset=ElDummy, material=DummyMaterial 
*Material, name=DummyMaterial
*Elastic
1.e-20
** strain and stress vector (3+3) and polymer vol fraction as user output
*User output variables
<nPostVars>
***************************************************************************
*Solid section, elset=extraElement, material=extraMaterial
*Material, name=extraMaterial
*Elastic
1.e-20
*Conductivity
1.0
*Density
1.0
*Specific heat
1.0
************************************************************************
** INITIAL CONDITIONS
************************************************************************
** Define the initial chemical potential
*Initial conditions, type=temperature
all, <initMU>
** Define an arbitrary initial condition for the extra element. 
*Initial conditions, type=temperature
extraElement, 0.0
************************************************************************
** AMPLITUDE DEFINITION
************************************************************************
*Amplitude, name=chemProfile, definition=decay
<mu0>, <initMU>, 0.0, <tRamp>
************************************************************************
** STEP DEFINITION
************************************************************************
*Step, Name=Swell, nlgeom=yes, inc=50000, UNSYMM=YES
*Coupled temperature-displacement, stabilize, deltmx=100.0
<dtInit>, <tEnd>, <dtMin>, <dtMax>
*Boundary
left,1,1,0.0
bottom,2,2,0.0
front,3,3,0.0
*Boundary, amplitude=chemProfile 
top,11,11,1.0
outer,11,11,1.0
*Boundary
extraElement,encastre
extraElement,11,11,0.0
************************************************************************
*Output, field, frequency=1, time marks=no
*node output, nset=all
u, nt, rf
** specify the user-defined output for the dummy element set
*element output, elset=elDummy
uvarm, le
*End Step
************************************************************************